5957
     RDKit          2D

 31 33  0  0  1  0  0  0  0  0999 V2000
    8.4752    2.2720    0.0000 P   0  0  0  0  0  0  0  0  0  0  0  0
   10.1980    2.4500    0.0000 P   0  0  0  0  0  0  0  0  0  0  0  0
   11.9209    2.6281    0.0000 P   0  0  0  0  0  0  0  0  0  0  0  0
    5.9405    0.5075    0.0000 O   0  0  0  0  0  0  0  0  0  0  0  0
    3.4026    1.0119    0.0000 O   0  0  0  0  0  0  0  0  0  0  0  0
    4.6844    2.7698    0.0000 O   0  0  0  0  0  0  0  0  0  0  0  0
    7.6651    1.6856    0.0000 O   0  0  0  0  0  0  0  0  0  0  0  0
    9.2852    2.8584    0.0000 O   0  0  0  0  0  0  0  0  0  0  0  0
    9.0615    1.4619    0.0000 O   0  0  0  0  0  0  0  0  0  0  0  0
    7.8888    3.0820    0.0000 O   0  0  0  0  0  0  0  0  0  0  0  0
   11.1109    2.0417    0.0000 O   0  0  0  0  0  0  0  0  0  0  0  0
   10.6063    3.3629    0.0000 O   0  0  0  0  0  0  0  0  0  0  0  0
    9.7897    1.5372    0.0000 O   0  0  0  0  0  0  0  0  0  0  0  0
   12.7309    3.2145    0.0000 O   0  0  0  0  0  0  0  0  0  0  0  0
   12.5073    1.8181    0.0000 O   0  0  0  0  0  0  0  0  0  0  0  0
   11.3345    3.4381    0.0000 O   0  0  0  0  0  0  0  0  0  0  0  0
    4.6783   -0.7504    0.0000 N   0  0  0  0  0  0  0  0  0  0  0  0
    4.6783   -2.3598    0.0000 N   0  0  0  0  0  0  0  0  0  0  0  0
    2.8660   -0.5551    0.0000 N   0  0  0  0  0  0  0  0  0  0  0  0
    2.0000   -2.0551    0.0000 N   0  0  0  0  0  0  0  0  0  0  0  0
    2.8660   -3.5551    0.0000 N   0  0  0  0  0  0  0  0  0  0  0  0
    4.4026    1.0102    0.0000 C   0  0  0  0  0  0  0  0  0  0  0  0
    4.9917    1.8182    0.0000 C   0  0  0  0  0  0  0  0  0  0  0  0
    4.9889    0.2002    0.0000 C   0  0  0  0  0  0  0  0  0  0  0  0
    5.9422    1.5075    0.0000 C   0  0  0  0  0  0  0  0  0  0  0  0
    6.7523    2.0939    0.0000 C   0  0  0  0  0  0  0  0  0  0  0  0
    3.7320   -1.0551    0.0000 C   0  0  0  0  0  0  0  0  0  0  0  0
    5.2619   -1.5551    0.0000 C   0  0  0  0  0  0  0  0  0  0  0  0
    3.7320   -2.0551    0.0000 C   0  0  0  0  0  0  0  0  0  0  0  0
    2.8660   -2.5551    0.0000 C   0  0  0  0  0  0  0  0  0  0  0  0
    2.0000   -1.0551    0.0000 C   0  0  0  0  0  0  0  0  0  0  0  0
  1  7  1  0
  1  8  1  0
  1  9  1  0
  1 10  2  0
  2  8  1  0
  2 11  1  0
  2 12  1  0
  2 13  2  0
  3 11  1  0
  3 14  1  0
  3 15  1  0
  3 16  2  0
  4 24  1  0
  4 25  1  0
 22  5  1  6
 23  6  1  6
  7 26  1  0
 24 17  1  1
 17 27  1  0
 17 28  1  0
 18 28  2  0
 18 29  1  0
 19 27  1  0
 19 31  2  0
 20 30  2  0
 20 31  1  0
 21 30  1  0
 22 23  1  0
 22 24  1  0
 23 25  1  0
 25 26  1  1
 27 29  2  0
 29 30  1  0
M  END
>  <PUBCHEM_COMPOUND_CID>  (1) 
5957

>  <PUBCHEM_COMPOUND_CANONICALIZED>  (1) 
1

>  <PUBCHEM_CACTVS_COMPLEXITY>  (1) 
800

>  <PUBCHEM_CACTVS_HBOND_ACCEPTOR>  (1) 
17

>  <PUBCHEM_CACTVS_HBOND_DONOR>  (1) 
7

>  <PUBCHEM_CACTVS_ROTATABLE_BOND>  (1) 
8

>  <PUBCHEM_CACTVS_SUBSKEYS>  (1) 
AAADceBzvAMAAAAAAAAAAAAAAAAAAWJAAAAsAAAAAAAAAFgB+AAAHgAQCCAACBzhlwYF8L9MFxCgQQZhZICAgC0REKABUCAoVBCDWAJAyEAeRAgPAALTACDwMAIAAAAAAAAAAAAAAAAAAAAAAAAAAAAAAA==

>  <PUBCHEM_IUPAC_OPENEYE_NAME>  (1) 
[[(2R,3S,4R,5R)-5-(6-aminopurin-9-yl)-3,4-dihydroxy-tetrahydrofuran-2-yl]methoxy-hydroxy-phosphoryl] phosphono hydrogen phosphate

>  <PUBCHEM_IUPAC_CAS_NAME>  (1) 
[[(2R,3S,4R,5R)-5-(6-aminopurin-9-yl)-3,4-dihydroxy-2-oxolanyl]methoxy-hydroxyphosphoryl] phosphono hydrogen phosphate

>  <PUBCHEM_IUPAC_NAME_MARKUP>  (1) 
[[(2<I>R</I>,3<I>S</I>,4<I>R</I>,5<I>R</I>)-5-(6-aminopurin-9-yl)-3,4-dihydroxyoxolan-2-yl]methoxy-hydroxyphosphoryl] phosphono hydrogen phosphate

>  <PUBCHEM_IUPAC_NAME>  (1) 
[[(2R,3S,4R,5R)-5-(6-aminopurin-9-yl)-3,4-dihydroxyoxolan-2-yl]methoxy-hydroxyphosphoryl] phosphono hydrogen phosphate

>  <PUBCHEM_IUPAC_SYSTEMATIC_NAME>  (1) 
[[(2R,3S,4R,5R)-5-(6-aminopurin-9-yl)-3,4-bis(oxidanyl)oxolan-2-yl]methoxy-oxidanyl-phosphoryl] phosphono hydrogen phosphate

>  <PUBCHEM_IUPAC_TRADITIONAL_NAME>  (1) 
[[(2R,3S,4R,5R)-5-adenin-9-yl-3,4-dihydroxy-tetrahydrofuran-2-yl]methoxy-hydroxy-phosphoryl] phosphono hydrogen phosphate

>  <PUBCHEM_IUPAC_INCHI>  (1) 
InChI=1S/C10H16N5O13P3/c11-8-5-9(13-2-12-8)15(3-14-5)10-7(17)6(16)4(26-10)1-25-30(21,22)28-31(23,24)27-29(18,19)20/h2-4,6-7,10,16-17H,1H2,(H,21,22)(H,23,24)(H2,11,12,13)(H2,18,19,20)/t4-,6-,7-,10-/m1/s1

>  <PUBCHEM_IUPAC_INCHIKEY>  (1) 
ZKHQWZAMYRWXGA-KQYNXXCUSA-N

>  <PUBCHEM_XLOGP3>  (1) 
-5.7

>  <PUBCHEM_EXACT_MASS>  (1) 
506.99574658

>  <PUBCHEM_MOLECULAR_FORMULA>  (1) 
C10H16N5O13P3

>  <PUBCHEM_MOLECULAR_WEIGHT>  (1) 
507.18

>  <PUBCHEM_OPENEYE_CAN_SMILES>  (1) 
C1=NC(=C2C(=N1)N(C=N2)C3C(C(C(O3)COP(=O)(O)OP(=O)(O)OP(=O)(O)O)O)O)N

>  <PUBCHEM_OPENEYE_ISO_SMILES>  (1) 
C1=NC(=C2C(=N1)N(C=N2)[C@H]3[C@@H]([C@@H]([C@H](O3)COP(=O)(O)OP(=O)(O)OP(=O)(O)O)O)O)N

>  <PUBCHEM_CACTVS_TPSA>  (1) 
279

>  <PUBCHEM_MONOISOTOPIC_WEIGHT>  (1) 
506.99574658

>  <PUBCHEM_TOTAL_CHARGE>  (1) 
0

>  <PUBCHEM_HEAVY_ATOM_COUNT>  (1) 
31

>  <PUBCHEM_ATOM_DEF_STEREO_COUNT>  (1) 
4

>  <PUBCHEM_ATOM_UDEF_STEREO_COUNT>  (1) 
0

>  <PUBCHEM_BOND_DEF_STEREO_COUNT>  (1) 
0

>  <PUBCHEM_BOND_UDEF_STEREO_COUNT>  (1) 
0

>  <PUBCHEM_ISOTOPIC_ATOM_COUNT>  (1) 
0

>  <PUBCHEM_COMPONENT_COUNT>  (1) 
1

>  <PUBCHEM_CACTVS_TAUTO_COUNT>  (1) 
-1

>  <PUBCHEM_COORDINATE_TYPE>  (1) 
1
5
255

>  <PUBCHEM_BONDANNOTATIONS>  (1) 
24  17  5
17  27  8
17  28  8
18  28  8
18  29  8
19  27  8
19  31  8
20  30  8
20  31  8
25  26  5
27  29  8
29  30  8
22  5  6
23  6  6

$$$$
